Version 4
SHEET 1 880 680
WIRE 400 -160 224 -160
WIRE 400 -128 400 -160
WIRE 224 -16 224 -160
WIRE 176 64 -96 64
WIRE -96 96 -96 64
WIRE 224 128 224 80
WIRE 224 272 224 208
FLAG 400 -48 0
FLAG -96 176 0
FLAG 224 272 0
SYMBOL voltage -96 80 R0
WINDOW 123 0 0 Left 0
WINDOW 39 0 0 Left 0
SYMATTR InstName V1
SYMATTR Value PULSE(0 3.3 0 0 0 10m)
SYMBOL voltage 400 -144 R0
SYMATTR InstName V2
SYMATTR Value 5
SYMBOL res 208 112 R0
SYMATTR InstName R1
SYMATTR Value 10k
SYMBOL nmos 176 -16 R0
SYMATTR InstName M1
TEXT -130 296 Left 2 !.tran 0 50m 0 1m
